21
Properties=species:S:1:pos:R:3:forces:R:3 Coordinates=T from=T ORCA-job=T beta-carboline_opt_followiroot_1=T energy=0.00010378268405020208 pbc="F F F"
C       -0.99637899       3.31388390      -0.05066380      -0.02713310      -0.01046757      -0.02954571
C       -0.84886171       1.91741065      -0.09131889       0.00800543      -0.00524934       0.00797879
C        0.16565234       1.03217344      -0.00676495       0.00080007      -0.00025200       0.01250846
C        1.54560483       1.46623562       0.00824226       0.00219611       0.01145654       0.01189530
C        2.05263562       2.75985388       0.06207537       0.01760223      -0.00055210       0.00940083
C        1.44057255       4.03354563       0.37697312      -0.01698005      -0.00637200       0.00514373
C        3.49401536       2.63316696      -0.01807534       0.00422413       0.00421640      -0.00161065
C        3.78656267       1.25538294      -0.09300655      -0.00356997       0.00581380      -0.00023560
C        5.11137729       0.82154080      -0.14342616      -0.00690477       0.00249595      -0.01383798
C        4.56751695       3.53218123      -0.02445235       0.00929693       0.00036859       0.01412794
C        5.84333250       2.99843870      -0.10185783       0.00469295      -0.00431276       0.00557725
N        6.12083876       1.68136289      -0.15003773      -0.00077163      -0.00575736      -0.01576995
N        2.59350635       0.57249973      -0.08342584      -0.00552815       0.01242184       0.00522769
H        1.30901816       4.66419271      -0.53200181       0.00621412       0.00506925      -0.00770721
H       -1.08664182       3.73923264      -1.07376375      -0.00527452      -0.01801435      -0.04071424
H       -1.89221693       1.53287286      -0.09997359       0.00479299      -0.00258717       0.00777363
H       -0.04938550      -0.03515425       0.02802928       0.00573350       0.01040709       0.03890986
H        5.36226034      -0.24437948      -0.16849052      -0.00767442       0.00284159      -0.03298793
H        4.41936821       4.61129843       0.02505874       0.01700844      -0.00217017       0.02834354
H        6.71025435       3.66434577      -0.12066077       0.00667000      -0.00999255       0.00906223
H        2.48247989      -0.42318802      -0.20914481      -0.00150486       0.01453881      -0.00617493
