   33
FINAL HEAT OF FORMATION = -1067.859550
C       -1.949628            0.983127             -0.14        
C       -2.835824            1.970058              0.02        
C       -0.724597            0.867732             -0.07        
C       -2.440862           -0.635632             -0.09        
C       -4.219837            1.847455             -0.16        
O       -2.264862            2.926533              0.30        
C       -0.114399           -0.538595             -0.23        
C        0.492576            1.702683              0.21        
O       -1.240276           -1.441305             -0.24        
O       -3.404347           -1.159811             -0.40        
C       -4.615941            3.041572              0.10        
O       -5.161498            0.871866             -0.22        
C       -3.570844            3.942022              0.23        
C        1.127700           -0.936858              0.01        
C        1.821767            1.501634              0.35        
C       -6.054613            3.783375              0.30        
O       -3.182375            5.144746              0.38        
C        1.974866            0.116564              0.18        
C       -7.164085            3.073730              0.06        
C       -6.328124            5.345562              0.21        
C       -8.288142            3.673112              0.13        
C       -7.359371            5.668436              0.11        
C       -8.401081            4.824390              0.50        
H        0.305463            2.624419              0.52        
H       -4.680825           -0.062577             -0.22        
H        1.390693           -2.107231             -0.39        
H        2.561884            2.054342              0.44        
H        3.339752           -0.273156              0.17        
H       -6.987675            2.105568              0.29        
H       -5.295890            5.814553              0.38        
H       -9.266371            2.869707              0.29        
H       -7.441937            6.754954              0.27        
H       -9.438565            5.440153              0.27        
