15
-562.22836566 -562.06975766 -562.03838966 -561.99880166 -561.99704466 -561.99210966 -561.98765966 -561.98128766 -561.96578566 -561.96456566 -561.96070066
N     -3.523180   -0.542109   -0.113741
C     -2.270364    0.084096   -0.170631
C     -1.165359   -0.753858   -0.109277
C     -1.331789   -2.134690    0.003008
N     -2.608147   -2.688317    0.054240
C     -3.743117   -1.916996   -0.003300
N     -0.156795   -2.781824    0.047850
C      0.764557   -1.834215   -0.034134
N      0.204940   -0.581819   -0.131724
H     -4.366880    0.015566   -0.153471
H     -2.740838   -3.688374    0.133829
H      0.700905    0.294076   -0.205124
O     -2.275574    1.407633   -0.278847
O     -4.868392   -2.366122    0.036107
H      1.837858   -1.993755   -0.027951
