15
-562.24823582 -562.05216782 -562.04640682 -562.00641282 -562.00619182 -562.00232582 -561.98682982 -561.98512282 -561.98302382 -561.97861882 -561.97444982
N     -3.496257   -0.543515   -0.115550
C     -2.279446    0.150725   -0.177131
C     -1.180304   -0.776847   -0.108955
C     -1.345534   -2.136000    0.001328
N     -2.598112   -2.697340    0.052940
C     -3.736575   -1.915106   -0.003319
N     -0.158497   -2.789925    0.048101
C      0.740501   -1.820611   -0.034492
N      0.185285   -0.591620   -0.130674
H     -4.337129    0.024694   -0.155017
H     -2.728481   -3.698033    0.134799
H      0.658302    0.299500   -0.204736
O     -2.226093    1.360434   -0.273392
O     -4.856728   -2.372456    0.040592
H      1.816893   -1.974607   -0.027660
