3
Properties=species:S:1:pos:R:3:forces:R:3 energy=0.00045498909800301135 pbc="F F F"
O       -1.56215431       4.37974198       0.02143648      -0.02502442       0.00845783      -0.02794121
H       -0.62481953       4.40355779      -0.00902043       0.00990235      -0.01506679       0.01193390
H       -1.91135397       3.84772785       0.71121805       0.01847674       0.00011827       0.01173727
