26
Properties=species:S:1:pos:R:3:forces:R:3 -498.69820334=T -498.55510534=T -498.51482834=T -498.51315434=T -498.49666134=T -498.48846334=T -498.47838734=T -498.46125734=T -498.45229834=T -498.44845534=T -498.43685334=T energy=3.961104994232301e-06 pbc="F F F"
C       -2.94152221      -1.02275690      -1.25694878  
C       -3.10620292      -1.63893923      -0.01855232  
C       -2.04321126       0.02380340      -1.37246096  
C       -1.31909333       0.44322157      -0.23505087  
C       -1.57499483      -0.27039412       0.96214347  
N       -2.43515044      -1.26818233       1.08096995  
C       -0.32240579       1.45069535      -0.27085003  
C       -0.15830174       2.43874839      -1.37171120  
C        1.11188482       2.26523387      -2.23902855  
H       -0.11737117       3.44829733      -0.92705010  
H       -1.04512997       2.42336454      -2.02236153  
C        1.39156444       0.79818626      -2.55726654  
H        1.98097287       2.67877276      -1.70456892  
H        0.99112315       2.84823943      -3.16639215  
N        1.35704289       0.04591620      -1.35655171  
H        0.24547766       1.61164275       0.64737014  
H        2.34270024       0.70164370      -3.12507976  
H        0.59591547       0.42415257      -3.25233030  
C        2.15703508      -1.12969691      -1.36972771  
H        2.35688126      -1.48366817      -0.34600745  
H        3.11747728      -1.03129824      -1.92056811  
H        1.60241389      -1.95759465      -1.87490596  
H       -3.50402417      -1.37327298      -2.12368506  
H       -3.80566199      -2.47125924       0.09905148  
H       -1.03344992       0.01310409       1.87167812  
H       -1.88355592       0.50496730      -2.33738987  
